Version 4
SHEET 1 1176 680
WIRE -1168 -960 -1264 -960
WIRE -1168 -880 -1168 -960
WIRE -1056 -816 -1072 -816
WIRE -928 -816 -976 -816
WIRE -624 -800 -640 -800
WIRE -528 -800 -544 -800
WIRE -1168 -720 -1168 -800
WIRE -1072 -720 -1072 -816
WIRE -1072 -720 -1168 -720
WIRE -1040 -720 -1072 -720
WIRE -928 -720 -928 -816
WIRE -1168 -704 -1168 -720
WIRE -928 -704 -928 -720
WIRE -928 -704 -976 -704
WIRE -896 -704 -928 -704
WIRE -768 -704 -832 -704
WIRE -640 -704 -640 -800
WIRE -640 -704 -768 -704
WIRE -608 -704 -640 -704
WIRE -224 -704 -224 -784
WIRE -1264 -688 -1264 -960
WIRE -1040 -688 -1104 -688
WIRE -528 -688 -528 -800
WIRE -528 -688 -544 -688
WIRE -768 -672 -768 -704
WIRE -608 -672 -640 -672
WIRE -528 -640 -528 -688
WIRE -640 -624 -640 -672
WIRE -592 -624 -592 -656
WIRE -592 -624 -640 -624
WIRE -1168 -592 -1168 -624
WIRE -1104 -592 -1104 -688
WIRE -1104 -592 -1168 -592
WIRE -1264 -544 -1264 -624
WIRE -1168 -544 -1168 -592
WIRE -1168 -544 -1264 -544
WIRE -1024 -544 -1024 -672
WIRE -1024 -544 -1168 -544
WIRE -768 -544 -768 -592
WIRE -768 -544 -1024 -544
WIRE -640 -544 -640 -624
WIRE -640 -544 -768 -544
WIRE -624 -544 -640 -544
WIRE -528 -544 -528 -576
WIRE -528 -544 -544 -544
FLAG -224 -624 0
FLAG -1024 -544 0
FLAG -528 -688 Vout2
FLAG -928 -720 Vout1
SYMBOL OpAmps\\LT1192 -1008 -704 R0
SYMATTR InstName U1
SYMBOL res -960 -832 R90
WINDOW 0 0 56 VBottom 2
WINDOW 3 32 56 VTop 2
SYMATTR InstName R1
SYMATTR Value 2.2Meg
SYMBOL res -1152 -608 R180
WINDOW 0 36 76 Left 2
WINDOW 3 36 40 Left 2
SYMATTR InstName R2
SYMATTR Value 100k
SYMBOL res -752 -576 R180
WINDOW 0 36 76 Left 2
WINDOW 3 36 40 Left 2
SYMATTR InstName R3
SYMATTR Value 100k
SYMBOL res -640 -528 R270
WINDOW 0 32 56 VTop 2
WINDOW 3 0 56 VBottom 2
SYMATTR InstName R4
SYMATTR Value 1k
SYMBOL res -640 -784 R270
WINDOW 0 32 56 VTop 2
WINDOW 3 0 56 VBottom 2
SYMATTR InstName R5
SYMATTR Value 2.2Meg
SYMBOL OpAmps\\LT1192 -576 -688 R0
SYMATTR InstName U2
SYMBOL voltage -1168 -784 R180
WINDOW 0 24 96 Left 2
WINDOW 3 24 16 Left 2
WINDOW 123 0 0 Left 0
WINDOW 39 0 0 Left 0
SYMATTR InstName V1
SYMATTR Value SINE(0 0.001m 1G)
SYMBOL voltage -224 -720 R0
WINDOW 123 0 0 Left 0
WINDOW 39 0 0 Left 0
SYMATTR InstName V2
SYMATTR Value 9
SYMBOL cap -1280 -688 R0
SYMATTR InstName C1
SYMATTR Value 0.1µ
SYMBOL cap -832 -720 R90
WINDOW 0 0 32 VBottom 2
WINDOW 3 32 32 VTop 2
SYMATTR InstName C2
SYMATTR Value 0.1µ
SYMBOL LED -544 -640 R0
SYMATTR InstName D1
TEXT -1418 -494 Left 2 !.tran 10n
